Version 4.1
SHEET 1 1660 680
WIRE 64 -96 -112 -96
WIRE 96 -96 64 -96
WIRE 272 -96 176 -96
WIRE 288 -96 272 -96
WIRE 416 -96 352 -96
WIRE 512 -96 416 -96
WIRE 624 -96 592 -96
WIRE 688 -96 624 -96
WIRE 784 -96 688 -96
WIRE -112 -80 -112 -96
WIRE 784 -80 784 -96
WIRE 176 -32 176 -96
WIRE 272 -32 272 -96
WIRE 64 32 64 -96
WIRE 80 32 64 32
WIRE 400 32 368 32
WIRE 624 32 624 -96
WIRE 624 32 480 32
WIRE 64 128 64 32
WIRE 64 128 16 128
WIRE 80 128 64 128
WIRE 448 144 416 144
WIRE 560 144 512 144
WIRE 560 176 560 144
WIRE 16 224 16 208
WIRE 80 224 16 224
WIRE 416 224 416 144
WIRE 416 224 368 224
WIRE 560 224 560 176
WIRE 80 320 64 320
WIRE 416 320 368 320
FLAG 416 -32 0
FLAG 224 384 0
FLAG 416 384 0
FLAG 560 176 0
FLAG 688 -32 0
FLAG -16 320 0
FLAG -112 0 0
FLAG 784 0 0
FLAG 784 -176 0
SYMBOL PowerProducts\\LT3579 224 176 R0
SYMATTR InstName U1
SYMBOL cap 352 -112 R90
WINDOW 0 0 32 VBottom 2
WINDOW 3 32 32 VTop 2
SYMATTR InstName C1
SYMATTR Value 4.7µ
SYMBOL diode 400 -96 R0
SYMATTR InstName D1
SYMATTR Value B560C
SYMBOL ind 496 -80 R270
WINDOW 0 32 56 VTop 2
WINDOW 3 5 56 VBottom 2
SYMATTR InstName L1
SYMATTR Value 3.3µ
SYMATTR SpiceLine Rser=6.3m
SYMBOL res 0 112 R0
SYMATTR InstName R1
SYMATTR Value 100k
SYMBOL cap 400 320 R0
SYMATTR InstName C2
SYMATTR Value 0.1µ
SYMBOL cap 480 208 R90
WINDOW 0 0 32 VBottom 2
WINDOW 3 32 32 VTop 2
SYMATTR InstName C3
SYMATTR Value 1n
SYMBOL res 576 208 R90
WINDOW 0 0 56 VBottom 2
WINDOW 3 32 56 VTop 2
SYMATTR InstName R2
SYMATTR Value 20k
SYMBOL cap 512 128 R90
WINDOW 0 0 32 VBottom 2
WINDOW 3 32 32 VTop 2
SYMATTR InstName C4
SYMATTR Value 27p
SYMBOL res 496 16 R90
WINDOW 0 0 56 VBottom 2
WINDOW 3 32 56 VTop 2
SYMATTR InstName R3
SYMATTR Value 187k
SYMBOL res 80 304 R90
WINDOW 0 0 56 VBottom 2
WINDOW 3 32 56 VTop 2
SYMATTR InstName R4
SYMATTR Value 43.2k
SYMBOL voltage -112 -96 R0
WINDOW 123 0 0 Left 0
WINDOW 39 0 0 Left 0
SYMATTR InstName V1
SYMATTR Value 12
SYMBOL res 768 -96 R0
SYMATTR InstName R5
SYMATTR Value 100
SYMBOL current 784 -176 R0
WINDOW 123 0 0 Left 0
WINDOW 39 0 0 Left 0
SYMATTR InstName I1
SYMATTR Value PWL(0 0 10m 0 10.0001m 0.5 12m 0.5 12.0001m 1 14m 1 14.0001m 1.5)
SYMBOL cap 704 -96 M0
WINDOW 123 -3 135 Left 2
WINDOW 0 41 61 Left 2
WINDOW 3 34 101 Left 2
SYMATTR Value2 x4
SYMATTR InstName Coc2
SYMATTR Value 12.84µ
SYMATTR SpiceLine Rser=2.172m Lser=0.204n
SYMBOL ind 192 -80 M270
WINDOW 0 32 56 VTop 2
WINDOW 3 5 56 VBottom 2
SYMATTR InstName L2
SYMATTR Value 3.3µ
SYMATTR SpiceLine Rser=6.3m
TEXT -144 408 Left 2 !.tran 16m startup
TEXT 256 -176 Left 2 !K1 L1 L2 0.98
