Version 4.1
SHEET 1 2348 896
WIRE -288 192 -416 192
WIRE -112 192 -288 192
WIRE 64 192 -112 192
WIRE 112 192 64 192
WIRE -416 208 -416 192
WIRE -288 208 -288 192
WIRE -112 208 -112 192
WIRE 64 288 64 192
WIRE 112 288 64 288
WIRE 480 288 400 288
WIRE 592 288 560 288
WIRE 896 288 592 288
WIRE 1040 288 896 288
WIRE 1200 288 1040 288
WIRE 1312 288 1200 288
WIRE -416 304 -416 288
WIRE -288 304 -288 272
WIRE -112 304 -112 272
WIRE 896 304 896 288
WIRE 1040 304 1040 288
WIRE 1200 304 1200 288
WIRE 1312 304 1312 288
WIRE 592 336 592 288
WIRE 736 336 592 336
WIRE 528 384 400 384
WIRE 896 400 896 368
WIRE 1040 400 1040 368
WIRE 1200 400 1200 384
WIRE 1312 400 1312 384
WIRE 528 416 528 384
WIRE 592 416 528 416
WIRE 736 416 736 400
WIRE 736 416 592 416
WIRE 592 432 592 416
WIRE 528 480 400 480
WIRE 592 544 592 512
WIRE 0 576 -16 576
WIRE 112 576 80 576
WIRE 464 576 400 576
WIRE 528 624 528 480
WIRE 592 624 528 624
WIRE 32 672 16 672
WIRE 112 672 96 672
WIRE 592 736 592 704
WIRE 256 752 256 736
WIRE 592 832 592 800
FLAG 256 752 0
FLAG -16 576 0
FLAG 16 672 0
FLAG -416 304 0
FLAG 896 400 0
FLAG 592 544 0
FLAG -416 192 Vin
FLAG -288 304 0
FLAG -112 304 0
FLAG 1040 400 0
FLAG 592 832 0
FLAG 1200 400 0
FLAG 1312 400 0
FLAG 1200 288 vout
SYMBOL res 96 560 R90
WINDOW 0 0 56 VBottom 2
WINDOW 3 32 56 VTop 2
SYMATTR InstName Rosc
SYMATTR Value 17.8k
SYMBOL cap 96 656 R90
WINDOW 0 0 32 VBottom 2
WINDOW 3 32 32 VTop 2
SYMATTR InstName C1
SYMATTR Value 1n
SYMBOL voltage -416 192 R0
WINDOW 123 0 0 Left 0
WINDOW 39 0 0 Left 0
SYMATTR InstName V1
SYMATTR Value 12V
SYMBOL ind 464 304 R270
WINDOW 0 32 56 VTop 2
WINDOW 3 5 56 VBottom 2
SYMATTR InstName L1
SYMATTR Value 0.8µ
SYMATTR SpiceLine Rser=0.88m
SYMBOL cap 880 304 R0
WINDOW 123 24 84 Left 2
SYMATTR Value2 x2
SYMATTR InstName CoutC
SYMATTR Value 47µ
SYMATTR SpiceLine Rser=2.172m Lser=0.204n
SYMBOL res 576 320 R0
SYMATTR InstName Rt
SYMATTR Value 100k
SYMBOL res 576 416 R0
SYMATTR InstName Rb
SYMATTR Value 22.1k
SYMBOL cap 720 336 R0
SYMATTR InstName Cff
SYMATTR Value 47p
SYMBOL polcap -304 208 R0
WINDOW 123 24 85 Left 2
SYMATTR Value2 x1
SYMATTR InstName CinB
SYMATTR Value 68µ
SYMATTR SpiceLine Rser=30m Lser=2.8n
SYMBOL cap -128 208 R0
WINDOW 123 26 79 Left 2
SYMATTR Value2 x1
SYMATTR InstName CinC
SYMATTR Value 5.65µ
SYMATTR SpiceLine Rser=4m Lser=0.672n
SYMBOL polcap 1024 304 R0
WINDOW 123 24 85 Left 2
SYMATTR Value2 x0
SYMATTR InstName CoutB
SYMATTR Value 0µ
SYMATTR SpiceLine Rser=0m Lser=0n
SYMBOL PowerProducts\\LT8642S 256 432 R0
SYMATTR InstName U1
SYMBOL res 576 608 R0
SYMATTR InstName Rth
SYMATTR Value 6.98k
SYMBOL cap 576 736 R0
SYMATTR InstName Cth
SYMATTR Value 220p
SYMBOL res 1184 288 R0
SYMATTR InstName R1
SYMATTR Value 3.3
SYMBOL current 1312 304 R0
WINDOW 123 0 0 Left 0
WINDOW 39 0 0 Left 0
SYMATTR InstName I1
SYMATTR Value PWL(0 0 1m 0 1.0001m 1 1.2m 1 1.2001m 0)
TEXT 328 880 Left 2 !.tran 1.5m startup
TEXT -72 80 Left 2 ;LT8642S - 18V, 10A Synchronous Step-Down Silent Switcher 2
