Version 4.1
SHEET 1 2524 1592
WIRE -208 -32 -448 -32
WIRE 32 -32 -208 -32
WIRE 336 -32 32 -32
WIRE 512 -32 336 -32
WIRE 512 -16 512 -32
WIRE 336 32 336 -32
WIRE 368 32 336 32
WIRE -448 64 -448 -32
WIRE -208 80 -208 -32
WIRE 32 80 32 -32
WIRE 336 128 336 32
WIRE 368 128 336 128
WIRE 672 128 656 128
WIRE 928 128 752 128
WIRE 208 224 128 224
WIRE 368 224 288 224
WIRE 688 224 656 224
WIRE 752 224 752 208
WIRE 752 224 688 224
WIRE 832 224 832 208
WIRE 928 224 928 128
WIRE 928 224 832 224
WIRE 1120 224 928 224
WIRE 1344 224 1120 224
WIRE 1584 224 1344 224
WIRE 1792 224 1584 224
WIRE 1824 224 1792 224
WIRE 928 240 928 224
WIRE -448 256 -448 144
WIRE -208 256 -208 144
WIRE 32 256 32 144
WIRE 128 272 128 224
WIRE 368 320 144 320
WIRE 928 320 656 320
WIRE 1824 320 1824 224
WIRE 1344 336 1344 224
WIRE 1584 336 1584 224
WIRE 1120 368 1120 224
WIRE 336 416 272 416
WIRE 368 416 336 416
WIRE 704 416 656 416
WIRE 832 416 704 416
WIRE 928 416 928 400
WIRE 272 432 272 416
WIRE 832 464 832 416
WIRE 1120 464 1120 448
WIRE 1120 464 832 464
WIRE 144 480 144 320
WIRE 144 480 48 480
WIRE 1120 480 1120 464
WIRE 272 512 272 496
WIRE 336 512 336 416
WIRE 368 512 336 512
WIRE 688 512 656 512
WIRE 832 512 688 512
WIRE 912 512 832 512
WIRE 1344 512 1344 400
WIRE 1824 512 1824 400
WIRE 144 528 144 480
WIRE 912 528 912 512
WIRE 48 544 48 480
WIRE 832 544 832 512
WIRE 1120 576 1120 560
WIRE 144 608 144 592
WIRE 336 608 336 512
WIRE 368 608 336 608
WIRE 688 608 656 608
WIRE 832 624 832 608
WIRE 912 624 912 608
WIRE 512 688 512 672
WIRE 48 736 48 608
WIRE 144 736 144 688
WIRE 144 736 48 736
WIRE 144 752 144 736
FLAG 512 688 0
FLAG 912 624 0
FLAG 832 624 0
FLAG 688 224 SW
FLAG 704 416 PGFB
FLAG 688 512 SET
FLAG -448 256 0
FLAG 32 256 0
FLAG -208 256 0
FLAG 144 752 0
FLAG 128 272 0
FLAG 1824 512 0
FLAG 1344 512 0
FLAG 1792 224 VOUT1
FLAG 272 512 0
FLAG 928 416 0
FLAG 1120 576 0
FLAG 1584 416 0
SYMBOL cap 848 544 M0
WINDOW 0 34 12 Left 2
WINDOW 3 34 52 Left 2
SYMATTR InstName C1
SYMATTR Value 100n
SYMBOL voltage -448 48 M0
WINDOW 0 45 50 Left 2
WINDOW 3 42 88 Left 2
SYMATTR InstName Vin1
SYMATTR Value 12V
SYMBOL cap 16 80 R0
WINDOW 3 -29 28 Right 2
WINDOW 123 -28 56 Right 2
SYMATTR Value 5.55µF
SYMATTR Value2 x1
SYMATTR SpiceLine Rser=4.83m Lser=0.83n
SYMATTR InstName Cinc1
SYMBOL cap -224 80 R0
WINDOW 3 -29 25 Right 2
WINDOW 123 -27 53 Right 2
SYMATTR Value 0µF
SYMATTR Value2 x0
SYMATTR SpiceLine Rser=0m Lser=0n
SYMATTR InstName Cinb1
SYMBOL res 160 592 M0
WINDOW 3 -19 77 Right 2
WINDOW 0 -21 50 Right 2
SYMATTR Value 3.09k
SYMATTR InstName Rth1
SYMBOL cap 64 544 M0
WINDOW 3 41 44 Left 2
WINDOW 0 41 14 Left 2
SYMATTR Value 150pF
SYMATTR InstName Cthp1
SYMBOL cap 128 592 M180
WINDOW 0 54 45 Left 2
WINDOW 3 51 18 Left 2
SYMATTR InstName Cth1
SYMATTR Value 3000pF
SYMBOL res 192 240 R270
WINDOW 0 32 56 VTop 2
WINDOW 3 0 56 VBottom 2
SYMATTR InstName Rfreq1
SYMATTR Value 47k
SYMBOL current 1824 320 M0
WINDOW 3 24 88 Invisible 2
WINDOW 0 -110 24 Left 2
WINDOW 123 0 0 Left 2
WINDOW 39 0 0 Left 2
SYMATTR Value PWL(0 0 1m 0 1.0001m 0.5 1.2m 0.5 1.20001m 1 1.4m 1 1.40001m 1.5 1.6m 1.5 1.60001m 2)
SYMATTR InstName Load1
SYMBOL cap 1328 336 R0
WINDOW 3 56 46 Left 2
WINDOW 123 56 72 Left 2
WINDOW 0 57 22 Left 2
SYMATTR Value 40.66µF
SYMATTR Value2 x4
SYMATTR InstName Coc1
SYMATTR SpiceLine Rser=2.17m Lser=0.2n
SYMBOL ind 736 224 R270
WINDOW 0 52 60 VTop 2
WINDOW 3 -28 52 VBottom 2
SYMATTR InstName L1
SYMATTR Value 2.2µH
SYMATTR SpiceLine Rser=1.4m
SYMBOL res 896 512 R0
WINDOW 0 58 48 Left 2
WINDOW 3 48 89 Left 2
SYMATTR InstName Riset1
SYMATTR Value 54.9k
SYMBOL cap 288 432 M0
WINDOW 0 51 19 Left 2
WINDOW 3 48 55 Left 2
SYMATTR InstName C2
SYMATTR Value 1µF
SYMBOL res 768 112 R90
WINDOW 0 -45 60 VBottom 2
WINDOW 3 -36 56 VTop 2
SYMATTR InstName R3
SYMATTR Value 100k
SYMBOL PowerProducts\\LT8624S 512 288 R0
SYMATTR InstName U1
SYMBOL res 912 416 M180
WINDOW 0 36 76 Left 2
WINDOW 3 36 40 Left 2
SYMATTR InstName Rb1
SYMATTR Value 100000k
SYMBOL res 912 336 M180
WINDOW 0 36 76 Left 2
WINDOW 3 36 40 Left 2
SYMATTR InstName Rt1
SYMATTR Value 0.001k
SYMBOL res 1104 576 M180
WINDOW 0 36 76 Left 2
WINDOW 3 36 40 Left 2
SYMATTR InstName R2
SYMATTR Value 1k
SYMBOL res 1104 464 M180
WINDOW 0 36 76 Left 2
WINDOW 3 36 40 Left 2
SYMATTR InstName R1
SYMATTR Value 10k
SYMBOL res 1568 320 R0
SYMATTR InstName R4
SYMATTR Value 100
TEXT -312 -496 Left 4 ;LT8624S - 18V, 4A Synchronous Step-Down Silent Switcher with Ultralow Noise Reference
TEXT 24 896 Left 2 !.tran 2m startup
TEXT 24 928 Left 2 ;* Adjust R1,R2,C1 as desired for start-up timing
TEXT 1752 -384 Left 2 ;Designer:
TEXT 1752 -432 Left 2 ;Date:
TEXT 1752 -480 Left 2 ;ProjectName:
