Version 4.1
SHEET 1 2084 916
WIRE 256 -272 224 -272
WIRE 368 -272 336 -272
WIRE 224 -208 224 -272
WIRE 368 -208 368 -272
WIRE -736 -128 -896 -128
WIRE -560 -128 -736 -128
WIRE -144 -128 -560 -128
WIRE 0 -128 -144 -128
WIRE 752 -128 592 -128
WIRE 864 -128 752 -128
WIRE 1072 -128 864 -128
WIRE 1184 -128 1072 -128
WIRE 1344 -128 1184 -128
WIRE 1392 -128 1344 -128
WIRE 1472 -128 1392 -128
WIRE 1664 -128 1472 -128
WIRE -896 -112 -896 -128
WIRE -736 -112 -736 -128
WIRE -560 -112 -560 -128
WIRE 752 -112 752 -128
WIRE 1344 -112 1344 -128
WIRE 1664 -112 1664 -128
WIRE -144 -80 -144 -128
WIRE -736 -32 -736 -48
WIRE -560 -32 -560 -48
WIRE 752 -16 752 -48
WIRE 1344 -16 1344 -48
WIRE -896 0 -896 -32
WIRE 624 0 592 0
WIRE 1472 0 1472 -48
WIRE -144 32 -144 0
WIRE 0 32 -144 32
WIRE -144 48 -144 32
WIRE 624 64 624 0
WIRE 864 64 864 -128
WIRE 864 64 624 64
WIRE 1072 80 1072 -128
WIRE 1072 80 592 80
WIRE 1184 80 1184 -128
WIRE 1184 80 1152 80
WIRE 1216 80 1184 80
WIRE 1152 96 1152 80
WIRE 1216 112 1216 80
WIRE -144 144 -144 128
WIRE 624 160 592 160
WIRE 624 208 624 160
WIRE 1152 208 1152 176
WIRE 1152 208 624 208
WIRE 1216 208 1216 176
WIRE 1216 208 1152 208
WIRE 1152 240 1152 208
WIRE -240 256 -272 256
WIRE -144 256 -176 256
WIRE 0 256 -144 256
WIRE 1216 256 1216 208
WIRE -144 336 -144 256
WIRE -112 336 -144 336
WIRE 0 336 -32 336
WIRE 624 336 592 336
WIRE 1152 336 1152 320
WIRE 1216 336 1216 320
WIRE 1216 336 1152 336
WIRE 800 352 768 352
WIRE 928 352 880 352
WIRE 1008 352 992 352
WIRE 1056 352 1008 352
WIRE 1152 368 1152 336
WIRE 0 416 -64 416
WIRE 768 416 768 352
WIRE 768 416 592 416
WIRE 880 416 768 416
WIRE 1008 416 1008 352
WIRE 1008 416 944 416
WIRE -64 496 -64 416
WIRE 0 496 -64 496
WIRE 720 496 592 496
WIRE 832 496 784 496
WIRE -144 576 -144 336
WIRE 0 576 -144 576
WIRE 640 576 592 576
WIRE 752 576 720 576
WIRE -144 656 -144 576
WIRE 0 656 -144 656
WIRE 624 656 592 656
WIRE 656 736 592 736
WIRE 752 736 720 736
WIRE 304 848 304 816
FLAG 304 848 0
FLAG -144 144 0
FLAG 832 496 0
FLAG 752 576 0
FLAG 624 656 0
FLAG 1392 -128 OUT
FLAG 752 736 0
FLAG 624 336 0
FLAG -896 0 0
FLAG -896 -128 IN
FLAG -736 -32 0
FLAG -560 -32 0
FLAG 1152 368 0
FLAG 752 -16 0
FLAG 1344 -16 0
FLAG 1472 0 0
FLAG 1056 352 0
FLAG -272 256 0
FLAG 1664 -32 0
SYMBOL res -16 320 R90
WINDOW 0 0 56 VBottom 2
WINDOW 3 32 56 VTop 2
SYMATTR InstName R1
SYMATTR Value 100k
SYMBOL res -160 -96 R0
SYMATTR InstName R2
SYMATTR Value 499k
SYMBOL res -160 32 R0
SYMATTR InstName R3
SYMATTR Value 80k
SYMBOL cap 784 480 R90
WINDOW 0 0 32 VBottom 2
WINDOW 3 32 32 VTop 2
SYMATTR InstName C8
SYMATTR Value 10n
SYMBOL LT8350S 304 288 R0
SYMATTR InstName U1
SYMBOL cap 720 720 R90
WINDOW 0 0 32 VBottom 2
WINDOW 3 32 32 VTop 2
SYMATTR InstName C1
SYMATTR Value 15p
SYMBOL voltage -896 -128 R0
WINDOW 123 0 0 Left 2
WINDOW 39 0 0 Left 2
SYMATTR InstName Vin1
SYMATTR Value 13V
SYMBOL cap -752 -112 R0
WINDOW 123 44 86 Left 2
WINDOW 3 48 44 Left 2
SYMATTR Value2 x0
SYMATTR Value 0µ
SYMATTR InstName Cinb1
SYMBOL cap -576 -112 R0
WINDOW 123 44 86 Left 2
WINDOW 3 48 44 Left 2
SYMATTR Value2 x1
SYMATTR Value 4.45µ
SYMATTR InstName Cinc1
SYMBOL res 1168 224 M0
SYMATTR InstName RfbBot1
SYMATTR Value 7.5k
SYMBOL res 1168 80 M0
SYMATTR InstName RfbTop1
SYMATTR Value 110k
SYMBOL cap 1232 112 M0
WINDOW 0 -88 -6 Left 2
WINDOW 3 -108 56 Left 2
SYMATTR InstName CfbTop1
SYMATTR Value 0p
SYMBOL cap 1232 256 M0
WINDOW 0 -85 -7 Left 2
WINDOW 3 -107 56 Left 2
SYMATTR InstName CfbBot1
SYMATTR Value 0p
SYMBOL cap 768 -112 M0
WINDOW 123 -3 135 Left 2
WINDOW 0 41 61 Left 2
WINDOW 3 34 101 Left 2
SYMATTR Value2 x4
SYMATTR InstName Coc1
SYMATTR Value 12.84µ
SYMATTR SpiceLine Rser=2.172m Lser=0.204n
SYMBOL cap 1360 -112 M0
WINDOW 123 8 145 Left 2
WINDOW 0 41 71 Left 2
WINDOW 3 38 113 Left 2
SYMATTR Value2 x0
SYMATTR InstName Cob1
SYMATTR Value 0µ
SYMATTR SpiceLine Rser=0m Lser=0n
SYMBOL current 1472 -128 M0
WINDOW 3 24 88 Invisible 2
WINDOW 123 0 0 Left 2
WINDOW 39 0 0 Left 2
WINDOW 0 -135 1 Left 2
SYMATTR Value PWL(0 0 1.4m 0 1.4001m 0.5 1.6m 0.5 1.6001m 1)
SYMATTR InstName LoadStep1
SYMBOL cap 928 336 M90
WINDOW 0 0 32 VBottom 2
WINDOW 3 34 38 VTop 2
WINDOW 39 120 280 VTop 2
SYMATTR InstName C2
SYMATTR Value 1000p
SYMBOL cap 880 400 M90
WINDOW 0 60 37 VBottom 2
WINDOW 3 60 42 VTop 2
SYMATTR InstName C4
SYMATTR Value 5.1p
SYMBOL res 784 336 M90
WINDOW 0 0 56 VBottom 2
WINDOW 3 32 56 VTop 2
SYMATTR InstName R4
SYMATTR Value 18.7k
SYMBOL res 736 560 R90
WINDOW 0 -1 60 VBottom 2
WINDOW 3 32 56 VTop 2
SYMATTR InstName Rfreq_1
SYMATTR Value 20k
SYMBOL ind 240 -256 R270
WINDOW 0 32 56 VTop 2
WINDOW 3 5 56 VBottom 2
SYMATTR InstName Lo1
SYMATTR Value 2.2µ
SYMATTR SpiceLine Rser=1.4m
SYMBOL cap -176 240 R90
WINDOW 0 0 32 VBottom 2
WINDOW 3 32 32 VTop 2
SYMATTR InstName C3
SYMATTR Value 1µ
SYMBOL res 1648 -128 R0
SYMATTR InstName R5
SYMATTR Value 100
TEXT 864 680 Left 2 !.tran 2.5m startup
TEXT 864 648 Left 2 ;If simulation model is not found, please "Sync release".
TEXT -264 -392 Left 3 ;LT8350S - 40Vin, 18Vout, 6A Synchronous Buck-Boost Silent Switcher
